! B3LYP def2-TZVP def2/J

%TDDFT NROOTS 10 END

* xyz 0 1
   C       -8.43896        0.21457       -0.00007
   C       -7.17767        0.62055        0.00007
   H       -8.73763       -0.71865        0.46286
   H       -9.22592        0.79847       -0.46283
   H       -6.39071        0.03665        0.46283
   H       -6.87900        1.55377       -0.46286
*
